src/test/resources/netPositionsData/20190618_0030_2D2_PL0.uct
##C 2007.05.01

##N
##ZPL
ZAL_DB11 SHADOW       1 2 400.00   00.00   10.00  450.00   10.00   17.00   20.00
ZEL_AL11 SHADOW       1 2 400.00   00.00   10.00  120.00   10.00  -96.99   20.00
##ZXX
XAL_DB11 CORE         1 0 400.00  120.00   10.00   00.00   10.00   20.00   20.00
XEL_AL11 VIRTHUB      1 0 400.00  120.00   10.00   00.00   10.00   20.00   20.00
##L
ZAL_DB11 XAL_DB11 1 0  20.00  20.00   20.00   5000
ZEL_AL11 XEL_AL11 1 0  20.00  20.00   20.00   5000
##T
##R
